/*--------------------------------*- C++ -*----------------------------------*\
| =========                 |                                                 |
| \\      /  F ield         | OpenFOAM: The Open Source CFD Toolbox           |
|  \\    /   O peration     | Version:  v1812                                 |
|   \\  /    A nd           | Web:      www.OpenFOAM.com                      |
|    \\/     M anipulation  |                                                 |
\*---------------------------------------------------------------------------*/


FoamFile {
  version 4.0;
  format ascii;
  class dictionary;
  object windkesselProperties;
}
// * * * * * * * * * * * * * * * * * * * * * * * * * * * * * * * * * * * * * //

ICA {
  C 0.5;
  R 0.1;   // commonly R_2 or R_distal
  Z 2.0;    // commonly R_1 or R_proximal

  // NOTE: Set this to true to use physiological units [mmHg.ml^-1.s] and [ml.mmHg^-1]
  //       if this is false, then SI units are used. Physiological units are converted
  //       at runtime.
  physiologicalUnits true;


  outIndex 0; // must equal 'index' value in 0/p
  FDM_order 1;

  // NOTE: ALL WK PARAMETERS ARE IN SI UNITS! Not in physiological units.

  // backward difference order: up to 3rd order

  // Initialise WK parameters
  // also useful to set initial condidions to speed up pressure development
  Flowrate_threeStepBefore 0;
  Flowrate_twoStepBefore 0;
  Flowrate_oneStepBefore 0;
  Pressure_twoStepBefore 9000;
  Pressure_oneStepBefore 9000;
  Pressure_start 9000;
}

ECA {
  C 1.5;
  R 0.2;
  Z 0.6;
  physiologicalUnits true;

  outIndex 1;
  FDM_order 1;
  Flowrate_threeStepBefore 0;
  Flowrate_twoStepBefore 0;
  Flowrate_oneStepBefore 0;
  Pressure_twoStepBefore 9000;
  Pressure_oneStepBefore 9000;
  Pressure_start 9000;
}

// ************************************************************************* //
