/*--------------------------------*- C++ -*----------------------------------*\
| =========                 |                                                 |
| \\      /  F ield         | OpenFOAM: The Open Source CFD Toolbox           |
|  \\    /   O peration     | Version:  v1812                                 |
|   \\  /    A nd           | Web:      www.OpenFOAM.com                      |
|    \\/     M anipulation  |                                                 |
\*---------------------------------------------------------------------------*/


FoamFile
{
    version     2.0;
    format      ascii;
    class       dictionary;
    location    "system";
    object      controlDict;
}
// * * * * * * * * * * * * * * * * * * * * * * * * * * * * * * * * * * * * * //

libs
(
    "libQuemada.so"
    "libgroovyBC.so"
);


application     haemoPimpleFoam;

startFrom       latestTime;

startTime       0;

stopAt          endTime;

endTime         6;

deltaT          1e-3;

writeControl    runTime;

writeInterval   1e-3;

purgeWrite      0;

writeFormat     ascii;

writePrecision  6;

writeCompression on;

timeFormat      general;

timePrecision   6;

runTimeModifiable true;

functions
{
    wallShearStress
    {
    // Mandatory entries (unmodifiable)
    type            wallShearStress;
    libs            (fieldFunctionObjects);

    // Optional entries (runtime modifiable)
    // patches         (WALL APEX SINUS); // (wall1 "(wall2|wall3)");

    // Optional (inherited) entries
    // writePrecision  8;
    // writeToFile     true;
    // useUserTime     true;
    // region          region0;
    // enabled         true;
    // log             true;
    // timeStart       0;
    // timeEnd         1000;
    // executeControl  timeStep;
    // executeInterval 1;
    writeControl    outputTime;
    }

    Mag
    {
        // Mandatory entries (unmodifiable)
        type            mag;
        libs            (fieldFunctionObjects);

        // Mandatory (inherited) entries (runtime modifiable)
        field           U; // wallShearStress;

        // Optional (inherited) entries
        result          wallShearStressMag;
        region          region0;
        enabled         true;
        log             false;
        timeStart       0;
        timeEnd         1000;
        executeControl  timeStep;
        executeInterval 1;
        writeControl    none;
        writeInterval   1;
    }

    //#include "surfaces"
    averagesCCA
    {
        type            surfaceFieldValue;
        libs            ("libfieldFunctionObjects.so");
        writeControl    timeStep;
        log             yes;
        writeFields     no;
        regionType      patch;
        name            CCA;
        operation       average;
        //        operation       weightedAverage;
        //        weightField     phi;

        fields
            (
                p
                U
                H
                wallShearStress
                wallShearStressMag
            );
    }
    averagesICA
    {
        type            surfaceFieldValue;
        libs            ("libfieldFunctionObjects.so");
        writeControl    timeStep;
        log             yes;
        writeFields     no;
        regionType      patch;
        name            ICA;
        operation       average;
        //        operation       weightedAverage;
        //        weightField     phi;

        fields
            (
                p
                U
                H
                wallShearStress
                wallShearStressMag
            );
    }
    averagesECA
    {
        type            surfaceFieldValue;
        libs            ("libfieldFunctionObjects.so");
        writeControl    timeStep;
        log             yes;
        writeFields     no;
        regionType      patch;
        name            ECA;
        operation       average;
        //        operation       weightedAverage;
        //        weightField     phi;

        fields
            (
                p
                U
                H
                wallShearStress
                wallShearStressMag
            );
    }

   flowRateCCA
   {
        type            surfaceFieldValue;
        libs ("libfieldFunctionObjects.so");
        enabled         yes;
        writeControl    timeStep;
        writeInterval   1;
        log             yes;
        writeFields     no;
        regionType      patch;
        name            CCA;
        operation       sum;

        fields
        (
            phi
        );
   }

   flowRateICA
   {
        type            surfaceFieldValue;
        libs ("libfieldFunctionObjects.so");
        enabled         yes;
        writeControl    timeStep;
        writeInterval   1;
        log             yes;
        writeFields     no;
        regionType      patch;
        name            ICA;
        operation       sum;

        fields
        (
            phi
        );
   }

   flowRateECA
   {
        type            surfaceFieldValue;
        libs ("libfieldFunctionObjects.so");
        enabled         yes;
        writeControl    timeStep;
        writeInterval   1;
        log             yes;
        writeFields     no;
        regionType      patch;
        name            ECA;
        operation       sum;

        fields
        (
            phi
        );
   }

   solverInfo
   {
       type            solverInfo;
       libs            ("libutilityFunctionObjects.so");
       fields          (U H p);
       timeStart       3.01;
       writeResidualFields no;
   }

}
// ************************************************************************* //
