/*--------------------------------*- C++ -*----------------------------------*\
| =========                 |                                                 |
| \\      /  F ield         | OpenFOAM: The Open Source CFD Toolbox           |
|  \\    /   O peration     | Version:  v1806                                 |
|   \\  /    A nd           | Web:      www.OpenFOAM.com                      |
|    \\/     M anipulation  |                                                 |
\*---------------------------------------------------------------------------*/
FoamFile
{
    version     2.0;
    format      ascii;
    class       dictionary;
    location    "system";
    object      fvSchemes;
}
// * * * * * * * * * * * * * * * * * * * * * * * * * * * * * * * * * * * * * //

ddtSchemes
{
    default         backward;
}

gradSchemes
{
    default         Gauss linear;
    grad(p)         leastSquares;
    grad(gammaDot)  leastSquares;
    grad(H)         leastSquares;
}

divSchemes
{
   default         Gauss linear;
   div(phi,U)      Gauss linearUpwind grad(U);
   div(phi,H)      Gauss linearUpwind grad(U);
   div(div(phi,U)) Gauss linear;
}

laplacianSchemes
{
    default         Gauss linear corrected;
}

interpolationSchemes
{
    default         linear corrected;
}

snGradSchemes
{
    default         corrected;
}


// ************************************************************************* //
